# Name File for MODFLOW created on 11/24/2021 by ModelMuse Version 4.3.0.0
LIST             11 cekcyn17.lst REPLACE
DATA(BINARY)      9 cekcyn17.cbc REPLACE
DIS              12 cekcyn17.dis OLD
BAS6             13 cekcyn17.bas OLD
OC               39 cekcyn17.oc OLD
DATA             37 cekcyn17.fhd REPLACE
DATA             38 cekcyn17.fdn REPLACE
DE4              36 cekcyn17.de4 OLD
LPF              14 cekcyn17.lpf OLD
GHB              19 cekcyn17.ghb OLD
RCH              24 cekcyn17.rch OLD
